This is part of my Natual Language Processing project.

TrainCorpusCreater.java
===============================================================
Using Stanford CoreNLP API. Input news articles and output training corpus for model training.
Input file: relation_final_test.txt
Output file: output.corp
Customize NER file: jg-regexner.txt (Company lists to force NER tagger to label these company as ORGANIZATION)
===============================================================